17
	Energy:      12.1083748
C          1.79649        1.01230        3.95475
C          1.13294        1.27994        5.31737
H          1.15387        1.39193        3.13153
H          1.96465       -0.07561        3.79957
H          2.77331        1.53869        3.89571
C         -0.23157        0.57344        5.34370
H          0.99276        2.37964        5.39440
C          2.02049        0.82034        6.47276
H         -0.86135        0.93113        4.50111
H         -0.79466        0.76573        6.27184
H         -0.09893       -0.52554        5.24372
O          1.79631        1.16794        7.76969
C          0.87419        2.08173        8.23573
H          0.99834        2.18370        9.33322
H         -0.16128        1.74590        8.05494
H          1.04797        3.07499        7.77059
O          3.01439        0.15034        6.23429
