87
	Energy:     508.4963895
N         -7.50467        1.35157        0.02753
C         -6.51863        2.29664       -0.02353
C         -5.22662        1.56660        0.01570
C         -6.99513        0.09681        0.10379
C         -5.52646        0.23239        0.10122
H         -8.49382        1.56471        0.01647
O         -6.66383        3.49647       -0.08529
O         -7.62331       -0.95223        0.16417
C         -3.88475        2.00799       -0.00236
C         -4.49834       -0.69338        0.18591
C         -3.11903       -0.26316        0.17999
C         -2.73644        1.09411        0.06866
H         -3.78646        3.09284       -0.03952
H         -4.75930       -1.74785        0.27036
H         -2.39357       -1.05686        0.28816
C         -1.14376        1.72723        0.08868
C         -1.16282        2.80079       -1.02104
F         -1.62017        2.27299       -2.18757
F          0.05175        3.32163       -1.28343
F         -1.96425        3.85720       -0.74651
C         -1.08520        2.52920        1.39886
F         -2.19366        3.26623        1.64882
F         -0.04582        3.38782        1.43505
F         -0.95536        1.68908        2.45688
C          0.38094        0.84946       -0.00161
C          1.77428        1.45815        0.06540
C          3.08990        0.69065        0.05972
C          0.45732       -0.54582       -0.09770
C          1.73970       -1.27326       -0.09577
C          3.03130       -0.66938       -0.01100
C          4.45360       -1.26354        0.02614
N          5.42280       -0.25643        0.12297
C          4.67101        0.97372        0.12384
C          7.06884       -0.51391        0.20903
C          8.08632        0.45884        0.30011
C          9.67166        0.19468        0.38007
C          7.80612       -1.76430        0.19474
C          9.43607       -2.03540        0.26942
C         10.46502       -1.05639        0.40070
H          7.80219        1.51598        0.29658
H          7.21718       -2.68358        0.10276
H          9.70609       -3.09006        0.18238
H         10.19231        1.15354        0.38384
H          1.68450       -2.36170       -0.15934
H         -0.43988       -1.15151       -0.17804
H          1.84919        2.54928        0.12347
O          5.09814        2.11683        0.15179
O          4.61262       -2.47222       -0.02679
C         12.30793       -1.06455        0.22586
C         12.63401        0.30410        0.88925
H         12.44875        0.24826        1.96876
H         12.06852        1.13434        0.47462
H         13.64890        0.65443        0.73123
C         12.43848       -0.95866       -1.30935
H         12.14296       -1.90539       -1.77652
H         13.46467       -0.73947       -1.62481
H         11.79850       -0.17084       -1.71960
C         15.16818       -1.32758        0.92825
C         14.27134       -3.30137        0.27839
C         15.77404       -3.87104        0.32814
C         17.02740       -3.20557        0.67826
C         16.66139       -1.88901        0.96315
H         15.85211       -4.91523        0.00471
H         17.44231       -1.15818        1.18917
C         13.86414       -1.98387        0.61306
H         13.54160       -4.01996       -0.09479
H         15.19868       -0.26029        1.14618
C         18.58316       -3.96845        0.54940
C         20.14909       -3.57239        1.01992
C         18.79885       -4.20081       -0.97916
C         18.44709       -5.34666        1.27462
C         20.61614       -2.47327        1.74623
C         22.01351       -2.33108        2.09544
C         22.99526       -3.26723        1.74642
C         21.22742       -4.50901        0.68667
C         22.59562       -4.37196        1.03218
H         19.94839       -1.69157        2.08217
H         22.35366       -1.46521        2.66543
H         24.04372       -3.14377        2.02674
H         23.32898       -5.13023        0.74710
H         21.03116       -5.42900        0.13573
H         18.47983       -5.20867        2.36285
H         19.26046       -6.04832        1.04096
H         17.53848       -5.88472        1.01402
H         19.12658       -3.27266       -1.46535
H         17.90485       -4.56796       -1.48102
H         19.57751       -4.94252       -1.20563
