10
	Energy:       4.5340731
C         -2.28369        1.00912       -0.35124
C         -1.00591        0.90999        0.47980
H         -2.98001        0.18558       -0.08571
N         -1.29342        1.00876        1.90822
H         -2.03310        0.93093       -1.43009
H         -0.50667       -0.06120        0.27344
H         -0.31273        1.72841        0.18873
H         -2.78521        1.98354       -0.17077
H         -1.93705        0.23444        2.19190
H         -1.75353        1.92589        2.11187
