20
	Energy:       6.1221644
C          1.76484        1.08498        4.38166
C          1.29385        1.73007        5.68240
H          1.19717        1.51095        3.52763
H          1.59345       -0.01226        4.40934
H          2.84669        1.28151        4.22306
H          1.45717        2.82415        5.59978
C          2.05645        1.15941        6.88875
C          1.57431        1.72386        8.24553
H          3.14524        1.35413        6.76672
H          1.89947        0.05764        6.89763
C          1.79945        3.23956        8.36521
C          2.30568        1.00822        9.38940
H          0.48656        1.51715        8.35511
H          3.40137        1.18458        9.32781
H          2.11715       -0.08567        9.34276
H          1.93934        1.37676       10.37146
H          2.87729        3.48589        8.25394
H          1.45286        3.59826        9.35798
H          1.22032        3.79457        7.60051
H          0.20616        1.53538        5.80434
