8
	Energy:       0.3141990
C         -2.95885        0.22198       -2.00548
C         -1.46904        0.42165       -1.77747
H         -3.52762        0.58529       -1.12361
H         -3.17837       -0.85568       -2.15989
H         -3.28282        0.79035       -2.90279
F         -1.06843       -0.28427       -0.65802
H         -1.25508        1.50033       -1.62370
F         -0.76299       -0.02841       -2.87790
