58
	Energy:     118.5919402
N         -6.86677        1.01171       -0.15956
C         -5.94323        1.94162       -0.51827
C         -4.63592        1.36888       -0.19825
C         -6.29520       -0.09426        0.39576
C         -4.85075        0.14851        0.39910
H         -7.86126        1.14477       -0.25265
O         -6.12985        3.04950       -0.98189
O         -6.84148       -1.09062        0.81385
C         -3.36465        1.89303       -0.36830
C         -3.80669       -0.57479        0.92888
C         -2.51367       -0.02166        0.83646
C         -2.23813        1.18093        0.12154
H         -3.31222        2.87166       -0.83594
H         -3.98680       -1.51768        1.43752
H         -1.72352       -0.55636        1.36347
C         -0.78198        1.80693        0.02140
C         -0.68627        2.83685       -1.12649
F         -1.02007        2.25845       -2.30931
F          0.54714        3.35964       -1.29776
F         -1.50318        3.90103       -0.96425
C         -0.61214        2.65301        1.29619
F         -1.65396        3.49088        1.50797
F          0.50107        3.41678        1.29433
F         -0.53384        1.85620        2.39488
C          0.44005        0.80061       -0.10744
C          1.76660        1.30923       -0.07688
C          2.84685        0.44042       -0.06290
C          0.32194       -0.60749       -0.23753
C          1.43150       -1.47102       -0.10416
C          2.68485       -0.90856        0.01942
C          4.00656       -1.48150        0.26486
N          4.94151       -0.47314        0.10352
C          4.27505        0.70499       -0.16233
C          6.37883       -0.61823        0.18793
C          7.22000        0.45009        0.63206
C          8.62741        0.29130        0.67574
C          7.03459       -1.83473       -0.17182
C          8.43957       -1.96836       -0.03417
C          9.24355       -0.91407        0.37319
C          6.76051        1.80659        1.11121
H          9.25265        1.13092        0.98130
H          1.30840       -2.55096       -0.11183
H         -0.63492       -1.08886       -0.42411
H          2.00160        2.37188       -0.05205
O          4.64569        1.79375       -0.56250
O          4.09063       -2.62905        0.66419
C          6.36901       -3.05856       -0.75252
H          5.52106       -2.80026       -1.39084
H          6.07629       -3.74585        0.04681
H          7.06099       -3.60591       -1.40432
C         10.73297       -1.04994        0.46753
H          8.91143       -2.91927       -0.28211
H          5.81276        1.75272        1.65133
H          6.70793        2.50622        0.27119
H          7.47443        2.23239        1.82701
H         11.05571       -2.08084        0.28893
H         11.07685       -0.76355        1.46699
H         11.21809       -0.40914       -0.27579
