59
	Energy:     501.9767160
C         -2.54451       -2.66976        1.30625
C         -2.08572       -3.12869        0.12558
C         -0.03177       -3.88787        1.18063
C         -0.85938       -3.68463        0.03990
C          2.14793       -3.89091        5.82046
C          2.93312       -3.70303        6.99635
C          0.98986       -3.12938        5.45655
C          2.54253       -2.82833        7.97590
C          0.53749       -2.33360        6.58652
C          1.28375       -2.23412        7.83956
C          2.41163       -5.00998        4.94101
H          3.83797       -4.26745        7.19107
C          0.42645       -3.26288        3.86303
O          3.34644       -2.56066        9.06708
H         -0.37576       -1.77512        6.51609
C          2.96716       -1.67221       10.03588
C          3.84788       -1.13184       11.03843
C          1.62114       -1.24624       10.00829
C          3.34160       -0.22627       11.98659
C          1.12504       -0.44100       11.03796
C          1.98700        0.08682       12.00912
C          5.27004       -1.38516       11.14830
O          0.82243       -1.56151        8.93492
H          3.99455        0.23577       12.72787
C         -0.27696       -0.14816       11.10830
H          1.62097        0.76414       12.77582
N         -1.39884        0.11234       11.20454
N          6.40874       -1.52429       11.31690
C          1.14842       -4.78330        3.94478
C         -0.47371       -3.46276        2.50267
C         -0.01932       -1.67509        3.66323
H          1.29236       -5.35205        2.99774
H          0.31898       -5.38444        4.40901
C          2.40896       -6.32233        5.86779
C          3.86795       -5.02150        4.38225
H          1.53969       -6.44042        6.55238
H          3.26801       -6.29980        6.59233
H          2.60893       -7.28138        5.34413
H          4.14943       -4.17166        3.74700
H          4.09236       -5.99010        3.87278
H          4.60023       -5.02944        5.23082
C         -1.61142       -1.53677        3.31057
H          0.54360       -1.30234        2.76264
H          0.25180       -0.94865        4.43933
C         -2.19127       -0.26449        2.47557
C         -2.46752       -1.51079        4.56477
C         -1.69915       -2.72928        2.44096
H         -2.27935       -0.51265        5.02823
H         -2.19994       -2.30177        5.27310
H         -3.55897       -1.54288        4.33228
H         -2.13412        0.72854        2.94998
H         -3.31021       -0.36587        2.35998
H         -1.87107       -0.16299        1.40475
H         -3.44250       -2.06779        1.18105
H          0.96016       -4.25360        0.92295
O         -0.47268       -3.94165       -1.20402
O         -2.77833       -2.89796       -0.99409
H         -3.62798       -2.46050       -0.91581
H          0.39448       -4.28428       -1.35293
