9
	Energy:       4.1390592
C         -2.27064        1.00918       -0.31907
C         -0.99114        0.90922        0.49728
H         -2.96351        0.18596       -0.04337
O         -1.29877        1.00695        1.85941
H         -2.03257        0.93223       -1.40100
H         -0.50861       -0.07109        0.28671
H         -0.31249        1.73982        0.20107
H         -0.43428        0.93613        2.34158
H         -2.76884        1.98346       -0.12838
