64
Energy
C         -6.408558883051     1.919929844238    -1.074471772824
C         -5.070046196644     2.609294643596    -1.146917684416
H         -7.117929988469     2.619026423355    -0.643878969673
H         -6.343158202158     1.025154603031    -0.456474551740
H         -6.756917540225     1.620725215417    -2.060198661008
O         -4.045680800556     1.936100099366    -1.681610963876
C         -4.156982258772     0.668143255225    -2.274008219437
O         -4.884024555610     3.701261285428    -0.744386078420
C          0.780788995871     2.794664880867    -0.291055241129
H          1.245414255198     2.502076551108     1.784690103558
O          1.366488000202     3.283264944299    -1.209212834494
C          0.864313472796     3.274284873127     1.120413353274
H          1.487703695788     4.163018584533     1.145255482808
O         -0.047982527143     1.771894394618    -0.421327155249
H         -0.144556110017     3.520547413519     1.454488310695
C         -0.761738095114    -0.241325465247    -1.486107833779
C         -0.162161649358     1.150554260069    -1.691624170856
C         -1.038967407493     1.997118061513    -2.637682532949
C         -1.940841052798     1.105929811836    -3.485406057272
O         -0.272277989685     2.747338461350    -3.531701811714
H         -1.666082218377     2.637237461491    -2.016065265596
C         -2.780805744377     0.147347903249    -2.630945716859
O         -2.150411858526    -0.175082289434    -1.412833487086
H         -2.585003781913     1.733467053714    -4.098469330864
H         -4.754545443136     0.718558808922    -3.190499228189
H         -4.629158068396    -0.039652569058    -1.585480556751
H         -2.964233237581    -0.780103583437    -3.187486403124
H          0.824435919566     1.037753545985    -2.111614391934
H          0.386112766779     3.212569973777    -3.027794597101
H          2.258156098694    -4.024004393175    -0.557947828924
H          3.837497379475    -2.264609993536    -0.231045649841
C          2.411440576689    -3.702308532340     0.470707110009
H          3.191886068298    -0.000874255236    -0.759713020463
O          3.242201736015    -4.616516678101     1.042644516086
C          3.002400150194    -2.296803937212     0.471290101154
H         -0.564317367166    -3.546121929234     0.164022839152
O          4.392169114582    -0.168831325245     1.166404957281
C          0.633169373031    -1.817610589328    -0.290634191529
C          4.159533714364    -0.957557941815     2.023477612043
O          2.416682226119    -0.472345578781    -1.014323947220
C          0.156107318364    -2.906905339864     0.690115691191
C          1.977221918788    -1.213571781063     0.089652066601
O          1.203330323875    -3.707747678858     1.170957348040
O          3.504832653386    -2.090871315003     1.788021734414
H          5.245016099118    -0.018028375854     3.588193745182
C          4.491305292367    -0.795567027092     3.470043755022
C         -0.580757152949    -2.357138213682     1.900279665665
H         -1.499605270612    -1.882303858474     1.575618744573
H          4.831806630959    -1.728335108749     3.916802409369
H          1.820535733344    -0.563535828745     0.939934079102
H         -0.805554994888    -3.188253881743     2.570812568737
H          3.578680039768    -0.484562032306     3.965330448657
O          0.260949790204    -1.455581348915     2.592350805258
H         -2.204941474734    -0.497907310146     3.196094187621
C         -0.073562359815    -0.214045734255     2.947390572314
C         -1.509190072069     0.230863284097     2.791487206955
H         -1.717729349099     0.368927649147     1.731185129584
O          0.782138004974     0.500920726826     3.364164383616
H         -1.617908875618     1.174782930937     3.311109854466
O         -0.363573564191    -0.827413513243    -0.304007331955
H         -0.461331770643    -0.867341374589    -2.338400032778
H         -1.301442365307     0.551597302529    -4.175216500516
H          0.724593971650    -2.249184695669    -1.288982446302
H          3.452085489943    -4.317642091106     1.919187964937
