39
	Energy:      -1.4549183
N         -3.05715        2.27094        0.29437
C         -1.87800        3.09797        0.05943
C         -0.60283        2.25331        0.12159
H         -1.84411        3.88521        0.81999
H         -1.96633        3.58385       -0.91857
H         -3.89015        2.85867        0.28758
H         -3.17096        1.60779       -0.47117
C          0.65211        3.12044       -0.04694
H         -0.62821        1.48458       -0.66099
H         -0.55584        1.73086        1.08550
C          1.94101        2.29245        0.04068
H          0.66222        3.89537        0.72897
H          0.61304        3.63341       -1.01561
C          3.19644        3.17590       -0.03150
H          1.95669        1.55898       -0.77455
H          1.94957        1.72879        0.98165
C          4.48478        2.34200       -0.01043
H          3.19635        3.87370        0.81440
H          3.16893        3.77726       -0.94805
C          5.75323        3.21228        0.01301
H          4.50412        1.68929       -0.89176
H          4.48209        1.68955        0.87156
C          7.01878        2.34974       -0.08529
H          5.77384        3.79930        0.93882
H          5.73241        3.92169       -0.82266
C          8.32294        3.14720        0.08864
H          7.02942        1.84012       -1.05659
H          6.98173        1.56850        0.68455
C          9.53972        2.24357       -0.16063
H          8.35922        3.55800        1.10432
H          8.34240        3.99227       -0.60897
C         10.86648        2.74140        0.42745
H          9.65332        2.07675       -1.23911
H          9.34427        1.25953        0.28417
O         10.78062        5.12421        0.03120
C         11.48690        3.93621       -0.28447
H         11.58212        1.91148        0.36812
H         10.72666        2.97201        1.49008
H         12.30681        3.88782       -0.90932
