12
	Energy:      -1.6414506
O         -3.06723        2.23294        0.30762
C         -1.97549        3.11776        0.09501
C         -0.66787        2.33931        0.11896
H         -1.99437        3.87269        0.88717
H         -2.12088        3.62410       -0.86470
C          0.53221        3.24611       -0.08584
H         -0.68463        1.56514       -0.65743
H         -0.57457        1.80705        1.07310
H          0.47546        3.75977       -1.05086
H          1.45730        2.66159       -0.06610
H          0.59151        4.00247        0.70329
H         -3.05470        1.57504       -0.40836
