56
Energy:     547.6327885
H     -3.10710   -3.40930   -0.88710
C     -2.94800   -2.39830   -0.51920
C     -3.40770   -1.31070   -1.25890
H     -3.92580   -1.48690   -2.19800
C     -3.20750   -0.00730   -0.79750
S     -3.81140    1.37300   -1.72660
C     -2.54960    0.19300    0.41880
H     -2.39330    1.19950    0.79830
C     -2.08890   -0.89400    1.15930
H     -1.57710   -0.72350    2.10340
C     -2.28750   -2.19140    0.68990
O     -1.84360   -3.26000    1.40890
O     -3.06030    2.52750   -1.31700
O     -3.92830    0.94850   -3.09440
H     -4.87510    2.90340    0.49630
C     -5.69330    2.37030    0.01910
C     -6.98250    2.50150    0.53070
H     -7.16090    3.13340    1.39730
C     -8.04350    1.82660   -0.06760
O     -9.30580    1.95920    0.47430
H     -6.34760    0.21760   -2.53050
C     -6.51820    0.86770   -1.67630
C     -5.45350    1.55850   -1.09230
H    -11.57080    0.86740    1.19590
H    -13.68360    0.93920   -0.06040
C    -11.61340    1.39040    0.24370
C    -12.80770    1.43570   -0.47140
C    -10.47390    2.00760   -0.26140
C    -12.89140    2.11040   -1.69650
C    -14.23840    2.12650   -2.44720
C    -10.54050    2.68980   -1.47600
C    -11.73640    2.73560   -2.19010
H     -9.66210    3.19380   -1.87100
H    -11.74320    3.27130   -3.13390
C     -7.80820    0.99810   -1.16640
H     -8.62490    0.44570   -1.62430
H     -1.39710   -2.95790    2.22050
C    -14.45890    0.70100   -3.02020
C    -14.25920    3.09600   -3.65910
H    -15.35570    0.65590   -3.64290
H    -14.55820   -0.03550   -2.21920
H    -13.61070    0.40340   -3.64190
H    -13.54900    2.78640   -4.42970
H    -14.01340    4.11580   -3.35330
H    -15.25230    3.11660   -4.11500
H    -14.25500    4.33090   -0.84820
C    -15.17210    3.75580   -0.74310
C    -16.15200    4.20840    0.13760
H    -15.99140    5.12130    0.70600
C    -17.33590    3.49400    0.28940
H    -18.10200    3.84620    0.97600
C    -17.53680    2.32850   -0.44360
H    -18.46280    1.77020   -0.32960
C    -16.55650    1.87480   -1.32460
H    -16.75540    0.96380   -1.88020
C    -15.35380    2.58000   -1.48360
