14
	Energy:       4.9526900
C         -2.94929        0.21604       -2.01872
C         -1.45036        0.41011       -1.79539
H         -3.53448        0.58922       -1.15358
H         -3.17305       -0.86125       -2.16995
H         -3.26528        0.77783       -2.92283
O         -1.00173       -0.31139       -0.70373
H         -1.21073        1.48817       -1.66658
H         -0.91829        0.04251       -2.69807
C         -1.32979       -0.06348        0.59125
C         -0.81287       -0.97234        1.65968
H         -1.17953       -2.00387        1.47709
H         -1.15785       -0.63988        2.66215
H          0.29688       -0.97064        1.64240
O         -2.02589        0.89548        0.89393
