74
	Energy:     285.1876102
N         -4.50483        1.04819        2.06830
C         -5.13474        1.20856        0.79033
C         -6.49276        1.61069        0.65715
C         -7.27889        1.92219        1.91535
C         -7.05730        1.71431       -0.65610
C         -6.23404        1.45911       -1.77082
H         -6.63245        1.52267       -2.77467
C         -4.90763        1.07034       -1.62652
H         -4.31374        0.86677       -2.50922
C         -4.34930        0.93181       -0.36057
C        -10.75415        2.00822       -0.87688
C        -12.09337        1.76826       -0.58842
H        -12.31733        1.09149        0.21885
C        -13.10138        2.41602       -1.36052
H        -10.98355        4.15070       -3.48334
C        -11.29926        3.49858       -2.67925
C        -10.36945        2.84447       -1.88584
C        -14.61131        2.15603       -1.06987
C        -12.66332        3.28083       -2.41759
H        -13.35713        3.78929       -3.06755
C        -14.89819        0.64079       -1.37516
C        -14.95044        2.42824        0.44178
F        -14.60555        0.35507       -2.69902
F        -16.22266        0.32189       -1.12247
F        -14.12992       -0.20581       -0.59704
F        -14.55519        3.69208        0.83746
F        -14.33279        1.52921        1.29101
F        -16.31549        2.31812        0.65024
C         -8.90911        2.83321       -1.89771
C         -9.52669        1.48829       -0.28153
N         -8.44044        2.02343       -0.90741
O         -8.20492        3.46691       -2.66931
O         -9.47973        0.63368        0.59077
C         -2.88541        0.50126       -0.22251
C        -17.25186        3.51795       -3.58395
C        -18.28691        3.33058       -4.59928
O        -18.68311        2.26145       -5.03558
C        -17.13440        4.87035       -3.40465
C        -18.09785        5.48917       -4.31267
N        -18.75861        4.53178       -5.00068
O        -18.29507        6.68622       -4.44807
C        -16.47506        2.60876       -2.87327
C        -16.22979        5.40671       -2.50230
C        -15.52490        3.09706       -1.92510
H        -16.63329        1.56390       -3.07961
C        -15.42880        4.51837       -1.76496
H        -16.14123        6.47739       -2.37183
H        -14.72032        4.95464       -1.07806
H        -19.49258        4.68958       -5.70704
H         -8.28497        2.33030        1.73132
H         -6.79339        2.72153        2.50043
H         -7.35513        1.01309        2.54803
H         -2.75193       -0.51276       -0.65588
N         -2.47233        0.49073        1.18285
H         -2.26709        1.21346       -0.80908
C         -3.49751        0.01316        2.07838
C         -4.10749        2.27107        2.77830
H         -3.09771       -0.14711        3.10581
H         -3.91380       -0.95726        1.72297
C         -0.52614        1.96499        1.37687
C         -1.82130        1.67223        1.65988
C          0.07239        3.20473        1.94861
C         -2.63534        2.59638        2.52090
C         -0.65482        4.01991        2.73121
C         -2.07080        3.70578        3.02987
H         -2.64875        4.38552        3.64878
H         -0.06340        0.94882       -0.48270
H          1.37131        1.44435        0.46195
C          0.33659        1.05030        0.54457
H          0.38469        0.04758        1.01907
H         -4.28404        2.14281        3.86747
H         -4.68792        3.14539        2.41943
H          1.10869        3.45445        1.74194
H         -0.20637        4.91792        3.14402
