40
	Energy:     152.6931957
C        -10.35292        3.03126       -3.42785
C         -9.35056        3.08054       -4.41328
C         -9.98054        3.06991       -2.07993
H        -10.74820        3.01493       -1.31843
C         -8.00694        3.19545       -4.05014
C         -8.63397        3.18351       -1.70907
C         -7.63487        3.26293       -2.69406
O         -6.33729        3.36226       -2.29960
C         -5.27921        3.90220       -2.96490
C         -5.43544        4.94486       -4.02447
C         -4.04031        3.50384       -2.62274
C         -4.35550        5.45590       -4.63906
C         -2.84845        4.06428       -3.30366
H         -6.41600        5.31539       -4.30143
C         -2.98898        4.99376       -4.26938
H         -3.90284        2.75820       -1.84524
H         -4.48841        6.21564       -5.40337
C        -13.49806        2.66977       -5.14687
C        -14.26642        3.04528       -6.35854
C        -12.33437        3.28219       -4.85426
C        -13.81178        4.01263       -7.17048
C        -11.84382        4.37102       -5.75661
H        -15.19688        2.53536       -6.58685
C        -12.54498        4.71088       -6.85162
O        -11.67330        2.90648       -3.72440
H        -14.37325        4.28950       -8.05703
H        -10.93012        4.91084       -5.53495
H        -12.18910        5.50376       -7.50182
H        -13.88111        1.88688       -4.49909
H         -9.59487        3.01245       -5.46399
H         -7.26339        3.21227       -4.83459
S         -8.19020        3.23941        0.03293
O         -9.37867        2.87877        0.93725
O         -7.19466        2.13359        0.41678
O         -7.55889        4.69287        0.69558
H         -6.61325        4.71773        0.40164
H         -1.86357        3.71198       -3.01030
C         -1.79448        5.54830       -4.94368
O         -1.90517        6.39271       -5.81836
H         -0.80213        5.20683       -4.66498
