54
	Energy:      84.5033648
N         -6.85902        1.33202       -0.12193
C         -5.85188        2.22859       -0.30613
C         -4.60193        1.49920       -0.08955
C         -6.39572        0.09984        0.22644
C         -4.93834        0.21160        0.27638
H         -7.83730        1.55960       -0.19901
O         -5.94058        3.41189       -0.56892
O         -7.03382       -0.90505        0.45443
C         -3.28360        1.91377       -0.17496
C         -3.98197       -0.70101        0.65774
C         -2.64383       -0.27648        0.64501
C         -2.25855        0.99384        0.14916
H         -3.06051        2.93682       -0.46875
H         -4.25856       -1.69854        0.98494
H         -1.91066       -0.96749        1.05092
C         -0.82030        1.49761        0.05254
C          0.39736        0.58894       -0.09749
C          1.67105        1.21033       -0.08769
C          2.80776        0.41400       -0.07667
C          0.35749       -0.81452       -0.23931
C          1.51268       -1.59837       -0.11405
C          2.71943       -0.94473        0.01480
C          4.05689       -1.44949        0.28634
N          4.95285       -0.41451        0.09355
C          4.22941        0.73218       -0.19349
C          6.40387       -0.52522        0.17106
C          7.24664        0.59323        0.50715
C          8.67644        0.48508        0.46943
C          7.07179       -1.76082       -0.08227
C          8.46920       -1.87108        0.09654
C          9.27540       -0.77441        0.37652
C          6.70946        1.93466        0.96253
N          9.49284        1.60682        0.75203
H          1.46277       -2.68282       -0.12890
H         -0.57141       -1.34013       -0.43252
H          1.77243        2.29331       -0.07122
O          4.55148        1.82509       -0.62574
O          4.17121       -2.57546        0.73692
C          6.44431       -3.04783       -0.56141
H          5.60525       -2.87001       -1.23744
H          6.16004       -3.67322        0.29047
H          7.16068       -3.63429       -1.15070
C         10.75837       -0.98063        0.52835
H         -0.77877        2.19020       -0.79990
H         -0.65845        2.09378        0.96233
H          8.94178       -2.84720       -0.01963
H         11.02277       -2.04382        0.51872
H         11.10629       -0.57290        1.48333
H         11.29612       -0.49863       -0.29426
H          5.75215        1.84377        1.47907
H          6.64660        2.62146        0.11220
H          7.36039        2.39821        1.71204
H          9.09584        2.47530        0.40499
H         10.44743        1.50237        0.42417
