62
	Energy:      99.1620510
N         -6.72846        0.68483       -0.26229
C         -5.83072        1.51548       -0.85958
C         -4.52089        1.17368       -0.30246
C         -6.13944       -0.15148        0.63486
C         -4.71167        0.16717        0.62179
H         -7.71937        0.70842       -0.44400
O         -6.03839        2.38521       -1.67780
O         -6.66386       -0.99973        1.32842
C         -3.27463        1.72555       -0.54939
C         -3.66666       -0.33349        1.36667
C         -2.39873        0.23465        1.16510
C         -2.16708        1.26160        0.19763
H         -3.21975        2.52450       -1.28442
H         -3.82978       -1.11656        2.10137
H         -1.58059       -0.13057        1.78922
C         -0.74579        1.92628        0.07701
C         -0.63078        2.91101       -1.09720
F         -0.87901        2.28425       -2.27650
F          0.60240        3.45547       -1.21143
F         -1.49844        3.94293       -1.01177
C         -0.59678        2.83317        1.31129
F         -1.67802        3.62762        1.49565
F          0.47661        3.64922        1.26051
F         -0.46599        2.09438        2.44407
C          0.43031        0.89021       -0.05926
C          1.76645        1.28765        0.18885
C          2.79162        0.37160        0.00408
C          0.22093       -0.44528       -0.50743
C          1.27679       -1.36545       -0.64046
C          2.55651       -0.92145       -0.38161
C          3.84670       -1.60478       -0.46362
N          4.82239       -0.66740       -0.18521
C          4.23264        0.53755        0.14793
C          6.22960       -0.91977       -0.13409
C          7.14194        0.12808        0.05760
C          8.49515       -0.11743        0.32319
C          6.76251       -2.21481       -0.22894
C          8.13579       -2.45640       -0.07351
C          9.00271       -1.41024        0.22342
C          9.41347        0.98571        0.68468
H          1.09781       -2.38911       -0.95812
H         -0.77498       -0.80283       -0.76919
H          2.04296        2.29833        0.48341
O          4.69889        1.58992        0.54689
O          3.90921       -2.79181       -0.72685
H          8.51963       -3.47067       -0.16246
H          6.82352        1.16555        0.01690
H          6.13284       -3.08163       -0.41034
H         10.06396       -1.60037        0.37064
O         10.48490        1.09803        0.10236
O          9.05371        1.82487        1.69144
C          7.95911        1.57894        2.60070
C          7.94186        2.65068        3.68142
H          8.06365        0.58638        3.05180
H          7.00868        1.64799        2.07096
H          8.81601        2.54511        4.33397
H          7.06060        2.51173        4.32006
C          7.93483        4.05424        3.08857
H          8.88674        4.28930        2.60124
O          7.71053        5.00566        4.12157
H          7.13535        4.16549        2.34902
H          8.47363        4.96421        4.72268
