60
	Energy:     111.4737436
N         -6.73084        0.52160       -0.29847
C         -5.85496        1.34851       -0.92867
C         -4.54879        1.10985       -0.31673
C         -6.13057       -0.22732        0.66789
C         -4.71790        0.15316        0.66444
H         -7.71523        0.48178       -0.50930
O         -6.07619        2.14574       -1.81822
O         -6.63453       -1.04862        1.40348
C         -3.32403        1.70204       -0.57035
C         -3.67034       -0.26411        1.45530
C         -2.42219        0.33551        1.23684
C         -2.21967        1.32288        0.22287
H         -3.27928        2.45922       -1.34911
H         -3.81572       -1.00988        2.23112
H         -1.59690        0.03234        1.88460
C         -0.82458        2.01997        0.08932
C         -0.70274        2.96317       -1.11463
F         -0.93055        2.29961       -2.27733
F          0.53015        3.50997       -1.22640
F         -1.58076        3.98930       -1.07254
C         -0.70866        2.97922        1.28942
F         -1.81513        3.74484        1.44245
F          0.33751        3.82859        1.20815
F         -0.55611        2.29061        2.45103
C          0.35005        0.98895        0.00074
C          1.63485        1.34006        0.45688
C          2.66319        0.42256        0.33688
C          0.19283       -0.29453       -0.60068
C          1.25896       -1.21202       -0.69454
C          2.49177       -0.82144       -0.20945
C          3.80114       -1.48149       -0.20522
N          4.71010       -0.57998        0.32486
C          4.06372        0.58241        0.68422
C          6.12992       -0.75037        0.35481
C          6.98021        0.35130        0.56224
C          8.35741        0.26502        0.34115
C          6.73829       -1.98343        0.06940
C          8.12401       -2.07990       -0.14055
C          8.91739       -0.93960       -0.05968
H          1.12344       -2.18775       -1.15410
H         -0.76879       -0.60209       -1.01508
H          1.88153        2.31414        0.87150
O          4.44846        1.61812        1.19672
O          3.93634       -2.60408       -0.65787
H          8.55179       -3.02493       -0.46225
H          6.59956        1.34060        0.79656
C         11.24038       -1.35222       -0.06899
C         11.80476       -2.53860       -0.53819
C         13.10786       -2.87759       -0.17689
C         13.84488       -2.02607        0.64655
C         13.26794       -0.85269        1.13719
C         11.96118       -0.51238        0.78007
H         14.87882       -2.26423        0.88424
H         13.85446       -0.18083        1.75897
H         11.25379       -3.16299       -1.23523
H          8.96342        1.16575        0.38332
H         11.54206        0.43447        1.10611
O         10.12326       -0.88696       -0.71261
H          6.15147       -2.88917       -0.06032
H         13.56337       -3.77991       -0.57596
