71
	Energy:     242.8505340
H         -2.62597       -0.43319        2.78686
C         -2.80222       -0.34530        1.72217
C         -4.09445       -0.09988        1.24528
H         -4.85085       -0.00814        2.00063
C         -4.36424        0.01744       -0.14519
C         -3.24948       -0.12373       -1.01764
H         -3.32394       -0.06502       -2.08591
C         -1.96257       -0.36877       -0.52923
H         -1.13424       -0.47694       -1.21859
C         -1.73858       -0.48106        0.83742
C         -8.03067        0.49079       -0.80981
C         -9.40298        0.57301       -0.55843
H         -9.77967        0.48791        0.45284
C        -10.28646        0.75999       -1.64746
O        -11.62502        0.82067       -1.37157
H         -7.93750        0.82780       -4.17425
C         -8.35243        0.76658       -3.17636
C         -7.52772        0.59360       -2.07148
H        -14.11056        0.27459       -0.86863
H        -16.02823        1.09229       -1.98525
C        -13.97739        0.96149       -1.69607
C        -15.11299        1.46692       -2.35902
C        -12.68104        1.32613       -2.07769
C        -15.00148        2.37425       -3.44379
C        -16.15948        3.05442       -4.28406
C        -12.54469        2.21477       -3.14564
C        -13.66313        2.69797       -3.81659
H        -11.58677        2.57471       -3.47783
H        -13.44061        3.35515       -4.64061
C         -9.74093        0.83450       -2.96393
H        -10.36120        0.92263       -3.83933
C        -16.01215        2.45513       -5.71144
C        -15.84067        4.59055       -4.27719
H        -14.98486        2.55671       -6.11468
H        -16.67160        2.92686       -6.46372
H        -16.25888        1.37058       -5.68170
H        -14.84125        4.86593       -4.64982
H        -15.93490        4.98156       -3.24122
H        -16.50096        5.19719       -4.92177
H        -17.82171        1.85649       -2.05199
C        -18.32855        2.39286       -2.80760
C        -19.71500        2.49978       -2.58910
H        -20.14891        2.03456       -1.71175
C        -20.53937        3.23327       -3.44887
C        -19.94504        3.84176       -4.55731
H        -20.49243        4.45687       -5.24706
C        -18.58138        3.70912       -4.79472
H        -18.22403        4.22114       -5.67469
C        -17.70069        3.00019       -3.92498
C         -6.08138        0.45596       -1.95689
C         -6.88165        0.27695        0.06923
N         -5.71268        0.24835       -0.65249
O         -5.32281        0.51571       -2.90968
O         -6.97592        0.11336        1.27333
H         -0.74070       -0.67464        1.21037
C        -24.86284        5.38335       -3.49871
C        -25.97617        6.14419       -2.93351
O        -26.22804        6.27874       -1.74661
C        -24.97265        5.50060       -4.86176
C        -26.14556        6.33989       -5.10525
N        -26.70714        6.69558       -3.92806
O        -26.57109        6.68585       -6.19597
C        -23.83265        4.65765       -2.90637
C        -24.07173        4.88055       -5.72100
C        -22.87461        4.03707       -3.73687
H        -23.76036        4.59086       -1.82841
C        -23.02030        4.13428       -5.15253
O        -21.85765        3.37090       -3.11698
H        -24.17712        4.97022       -6.79461
H        -22.34075        3.63786       -5.82722
H        -27.54490        7.28478       -3.80934
