39
	Energy:      13.2722957
C          0.16687        0.39327       -0.57610
C         -1.10239        0.02230        0.19561
H         -1.17746       -1.08576        0.25844
H         -1.03549        0.43467        1.22657
C         -2.35433        0.58033       -0.49248
H         -2.27546        1.68818       -0.55562
H         -2.42457        0.16680       -1.52281
C         -3.61744        0.20701        0.29181
H         -3.69532       -0.90101        0.35494
H         -3.54117        0.61916        1.32240
C         -4.87819        0.76445       -0.38026
H         -4.80154        1.87242       -0.44411
H         -4.96180        0.35111       -1.40966
C         -6.12916        0.38893        0.42275
H         -6.20386       -0.71925        0.48689
H         -6.03816        0.80110        1.45213
C         -7.40155        0.94317       -0.22893
H         -7.32903        2.05135       -0.29382
H         -7.49989        0.52966       -1.25695
C         -8.63892        0.56354        0.59364
H         -8.70875       -0.54484        0.65951
H         -8.53458        0.97671        1.62136
C         -9.92202        1.11245       -0.04069
H         -9.85436        2.22086       -0.10707
H        -10.03137        0.69807       -1.06725
C        -11.14914        0.72890        0.79574
H        -11.21460       -0.37986        0.86194
H        -11.03631        1.14479        1.82162
C        -12.44048        1.27454        0.16934
H        -12.37702        2.38188        0.10143
H        -12.55578        0.86020       -0.85527
C        -13.67201        0.92218        0.96044
N          1.34228       -0.15725        0.09110
H          0.26088        1.50027       -0.64445
H          0.10744       -0.02353       -1.60539
H          1.44063        0.28385        1.03464
H          2.18965        0.09378       -0.46770
O        -13.61004        0.26780        1.99040
H        -14.64001        1.25930        0.60527
