52
	Energy:      77.7568667
N         -6.79037        0.78601       -0.23231
C         -5.88741        1.63891       -0.78488
C         -4.57347        1.22515       -0.29216
C         -6.20127       -0.12796        0.58819
C         -4.76658        0.16276        0.56518
H         -7.78482        0.84735       -0.38371
O         -6.09428        2.58101       -1.52334
O         -6.72845       -1.01227        1.22805
C         -3.31998        1.76417       -0.53098
C         -3.71733       -0.40082        1.25724
C         -2.44211        0.15998        1.07195
C         -2.20356        1.23275        0.15860
H         -3.26884        2.61141       -1.20985
H         -3.88277       -1.22391        1.94638
H         -1.62634       -0.24872        1.67123
C         -0.77873        1.89839        0.05455
C         -0.66432        2.89438       -1.11202
F         -0.92977        2.28069       -2.29416
F          0.57063        3.43221       -1.23444
F         -1.51988        3.93496       -1.00840
C         -0.64687        2.79205        1.30157
F         -1.73392        3.57658        1.49064
F          0.42085        3.61686        1.26971
F         -0.51817        2.03766        2.42489
C          0.42206        0.88357       -0.05744
C          1.74654        1.33595        0.16488
C          2.80065        0.44103        0.07560
C          0.26024       -0.48327       -0.41711
C          1.34734       -1.37944       -0.46364
C          2.61045       -0.88305       -0.21026
C          3.92199       -1.53049       -0.18719
N          4.86292       -0.54677        0.06558
C          4.23036        0.66621        0.24623
C          6.27853       -0.75163        0.15659
C          7.15012        0.28321        0.54705
C          8.53533        0.07329        0.66111
C          6.86226       -1.99340       -0.14607
C          8.24680       -2.19712       -0.06755
C          9.08494       -1.16464        0.33504
C          9.45499        1.15356        1.09423
H          1.20169       -2.43029       -0.70089
H         -0.71958       -0.89133       -0.66447
H          1.99368        2.37319        0.38323
O          4.65584        1.77834        0.50165
O          4.02259       -2.73436       -0.33979
H          8.66660       -3.16692       -0.32699
H          6.77988        1.28234        0.75081
H          6.26768       -2.84149       -0.47530
H         10.16045       -1.32335        0.39184
O         10.57937        1.28481        0.64319
O          8.95545        1.92831        2.07952
H          8.10279        1.63811        2.45300
